*Heading
** Job name: Sample_abaqus_input_file Model name: Model-1
** Generated by: Abaqus/CAE 2018
*Preprint, echo=NO, model=NO, history=NO, contact=NO
** ----------------------------------------------------------------
** 
** PART INSTANCE: Part-1-1
** 
*Node
      1,          45.,           5.,           5.
      2,          45.,          2.5,           5.
      3,          45.,           0.,           5.
      4,          45.,           5.,          2.5
      5,          45.,          2.5,          2.5
      6,          45.,           0.,          2.5
      7,          45.,           5.,           0.
      8,          45.,          2.5,           0.
      9,          45.,           0.,           0.
     10,          40.,           5.,           5.
     11,          40.,          2.5,           5.
     12,          40.,           0.,           5.
     13,          40.,           5.,          2.5
     14,          40.,          2.5,          2.5
     15,          40.,           0.,          2.5
     16,          40.,           5.,           0.
     17,          40.,          2.5,           0.
     18,          40.,           0.,           0.
     19,          35.,           5.,           5.
     20,          35.,          2.5,           5.
** ... 70 like lines cut
*Element, type=C3D8R
 1, 10, 11, 14, 13,  1,  2,  5,  4
 2, 11, 12, 15, 14,  2,  3,  6,  5
 3, 13, 14, 17, 16,  4,  5,  8,  7
 4, 14, 15, 18, 17,  5,  6,  9,  8
 5, 19, 20, 23, 22, 10, 11, 14, 13
 6, 20, 21, 24, 23, 11, 12, 15, 14
 7, 22, 23, 26, 25, 13, 14, 17, 16
 8, 23, 24, 27, 26, 14, 15, 18, 17
 9, 28, 29, 32, 31, 19, 20, 23, 22
10, 29, 30, 33, 32, 20, 21, 24, 23
11, 31, 32, 35, 34, 22, 23, 26, 25
12, 32, 33, 36, 35, 23, 24, 27, 26
13, 37, 38, 41, 40, 28, 29, 32, 31
14, 38, 39, 42, 41, 29, 30, 33, 32
15, 40, 41, 44, 43, 31, 32, 35, 34
16, 41, 42, 45, 44, 32, 33, 36, 35
17, 46, 47, 50, 49, 37, 38, 41, 40
18, 47, 48, 51, 50, 38, 39, 42, 41
19, 49, 50, 53, 52, 40, 41, 44, 43
20, 50, 51, 54, 53, 41, 42, 45, 44
** ... 16 like lines cut
*Nset, nset=Part-1-1_Set-1, generate
  1,  90,   1
*Elset, elset=Part-1-1_Set-1, generate
  1,  36,   1
** Section: Section-1
*Solid Section, elset=Part-1-1_Set-1, material=Material-1
,
*System
*Nset, nset=Set-1, generate
 82,  90,   1
*Elset, elset=Set-1, generate
 33,  36,   1
*Nset, nset=Set-2
 1, 3, 7, 9
*Nset, nset=nodes_results_out
 1,
** 
** MATERIALS
** 
*Material, name=Material-1
*Elastic
200000., 0.3
** ----------------------------------------------------------------
** 
** STEP: Step-1
** 
*Step, name=Step-1, nlgeom=YES
*Static
0.1, 1., 1e-05, 1.
** 
** BOUNDARY CONDITIONS
** 
** Name: BC-1 Type: Symmetry/Antisymmetry/Encastre
*Boundary
Set-1, ENCASTRE
** 
** LOADS
** 
** Name: Load-1   Type: Concentrated force
*Cload
Set-2, 2, -120.
** 
** OUTPUT REQUESTS
** 
*Restart, write, frequency=0
** 
** FIELD OUTPUT: F-Output-1
** 
*Output, field, variable=PRESELECT
** 
** HISTORY OUTPUT: H-Output-1
** 
*Output, history, variable=PRESELECT
*End Step
